* NGSPICE file created from tmux_7therm_to_3bin_extracted.ext - technology: sky130A

.subckt sky130_fd_pr__pfet_01v8_A6MZLZ B D S G VSUBS
X0 S G D B sky130_fd_pr__pfet_01v8 ad=0.58 pd=4.58 as=0.58 ps=4.58 w=2 l=0.15
C0 B D 0.14266f
C1 G B 0.24043f
C2 G D 0.02934f
C3 B S 0.14266f
C4 S D 0.32105f
C5 G S 0.02934f
C6 S VSUBS 0.09023f
C7 D VSUBS 0.09023f
C8 G VSUBS 0.11914f
C9 B VSUBS 1.5811f
.ends

.subckt sky130_fd_pr__nfet_01v8_MH3LLV B D S G
X0 S G D B sky130_fd_pr__nfet_01v8 ad=0.29 pd=2.58 as=0.29 ps=2.58 w=1 l=0.15
C0 G S 0.02545f
C1 D G 0.02545f
C2 D S 0.16211f
C3 S B 0.1317f
C4 D B 0.1317f
C5 G B 0.34289f
.ends

.subckt tmux_2to1 Y vdd XM5/G B A S vss
XXM1 vdd vdd XM5/G S vss sky130_fd_pr__pfet_01v8_A6MZLZ
XXM2 vss vss XM5/G S sky130_fd_pr__nfet_01v8_MH3LLV
XXM3 vdd A Y S vss sky130_fd_pr__pfet_01v8_A6MZLZ
XXM4 vss A Y XM5/G sky130_fd_pr__nfet_01v8_MH3LLV
XXM5 vdd Y B XM5/G vss sky130_fd_pr__pfet_01v8_A6MZLZ
XXM6 vss Y B S sky130_fd_pr__nfet_01v8_MH3LLV
C0 S B 0.0426f
C1 B Y 0.03022f
C2 XM5/G S 0.4752f
C3 XM5/G Y 0.31571f
C4 vdd B 0.11322f
C5 XM5/G A 0.66126f
C6 vdd XM5/G 0.17343f
C7 S Y 0.13093f
C8 S A 0.09932f
C9 A Y 0.03022f
C10 vdd S 0.27839f
C11 vdd Y 0.18933f
C12 XM5/G B 0.09611f
C13 vdd A 0.05809f
C14 B vss 0.39578f
C15 S vss 1.22376f
C16 Y vss 0.38976f
C17 XM5/G vss 0.68597f
C18 vdd vss 4.09633f
C19 A vss 0.18036f
.ends

.subckt sky130_fd_pr__res_generic_m1_SPQYYJ R1 R2 m1_n100_n100# VSUBS
R0 R1 R2 sky130_fd_pr__res_generic_m1 w=1 l=1
C0 R2 VSUBS 0.07104f
C1 R1 VSUBS 0.07104f
C2 m1_n100_n100# VSUBS 0.10692f
.ends

.subckt inv vin vdd vout vss
XXMn vss vss vout vin sky130_fd_pr__nfet_01v8_MH3LLV
XXMp vdd vdd vout vin vss sky130_fd_pr__pfet_01v8_A6MZLZ
C0 vdd vin 0.13776f
C1 vout vin 0.12658f
C2 vdd vout 0.11998f
C3 vin vss 0.56678f
C4 vout vss 0.40687f
C5 vdd vss 1.84972f
.ends

.subckt buffer in out vdd inv_1/vin vss
Xinv_0 in vdd inv_1/vin vss inv
Xinv_1 inv_1/vin vdd out vss inv
C0 vdd out 0.00589f
C1 vdd inv_1/vin 0.16476f
C2 in inv_1/vin 0.01628f
C3 out inv_1/vin 0.0071f
C4 vdd in 0.01965f
C5 inv_1/vin vss 0.60193f
C6 out vss 0.3255f
C7 in vss 0.41789f
C8 vdd vss 3.06334f
.ends

.subckt tmux_7therm_to_3bin_extracted d0 d1 d2 d3 d4 d5 d6 q0 q1 q2 vdd vss
Xtmux_2to1_1 buffer_8/in vdd tmux_2to1_1/XM5/G buffer_5/out buffer_1/out R1/R1 vss
+ tmux_2to1
Xtmux_2to1_2 tmux_2to1_3/B vdd tmux_2to1_2/XM5/G buffer_6/out buffer_2/out R1/R1 vss
+ tmux_2to1
Xtmux_2to1_3 buffer_7/in vdd tmux_2to1_3/XM5/G tmux_2to1_3/B tmux_2to1_3/A buffer_8/in
+ vss tmux_2to1
XR1 R1/R1 R1/R2 R1/m1_n100_n100# vss sky130_fd_pr__res_generic_m1_SPQYYJ
Xbuffer_0 d0 buffer_0/out vdd buffer_0/inv_1/vin vss buffer
Xbuffer_1 d1 buffer_1/out vdd buffer_1/inv_1/vin vss buffer
Xbuffer_2 d2 buffer_2/out vdd buffer_2/inv_1/vin vss buffer
Xbuffer_3 d3 R1/R2 vdd buffer_3/inv_1/vin vss buffer
Xbuffer_4 d4 buffer_4/out vdd buffer_4/inv_1/vin vss buffer
Xbuffer_5 d5 buffer_5/out vdd buffer_5/inv_1/vin vss buffer
Xbuffer_6 d6 buffer_6/out vdd buffer_6/inv_1/vin vss buffer
Xbuffer_7 buffer_7/in q0 vdd buffer_7/inv_1/vin vss buffer
Xbuffer_8 buffer_8/in q1 vdd buffer_8/inv_1/vin vss buffer
Xbuffer_9 R1/R1 q2 vdd buffer_9/inv_1/vin vss buffer
Xtmux_2to1_0 tmux_2to1_3/A vdd tmux_2to1_0/XM5/G buffer_4/out buffer_0/out R1/R1 vss
+ tmux_2to1
X0 buffer_4/inv_1/vin d4.t1 vdd vdd sky130_fd_pr__pfet_01v8 ad=0.58 pd=4.58 as=0.58 ps=4.58 w=0 l=0
X1 buffer_1/inv_1/vin d1.t0 vss vss sky130_fd_pr__nfet_01v8 ad=0.29 pd=2.58 as=0.29 ps=2.58 w=0 l=0
X2 buffer_1/inv_1/vin d1.t1 vdd vdd sky130_fd_pr__pfet_01v8 ad=0.58 pd=4.58 as=0.58 ps=4.58 w=0 l=0
X3 buffer_5/inv_1/vin d5.t0 vss vss sky130_fd_pr__nfet_01v8 ad=0.29 pd=2.58 as=0.29 ps=2.58 w=0 l=0
X4 buffer_3/inv_1/vin d3.t0 vss vss sky130_fd_pr__nfet_01v8 ad=0.29 pd=2.58 as=0.29 ps=2.58 w=0 l=0
X5 buffer_5/inv_1/vin d5.t1 vdd vdd sky130_fd_pr__pfet_01v8 ad=0.58 pd=4.58 as=0.58 ps=4.58 w=0 l=0
X6 buffer_0/inv_1/vin d0.t1 vdd vdd sky130_fd_pr__pfet_01v8 ad=0.58 pd=4.58 as=0.58 ps=4.58 w=0 l=0
X7 buffer_3/inv_1/vin d3.t1 vdd vdd sky130_fd_pr__pfet_01v8 ad=0.58 pd=4.58 as=0.58 ps=4.58 w=0 l=0
X8 buffer_4/inv_1/vin d4.t0 vss vss sky130_fd_pr__nfet_01v8 ad=0.29 pd=2.58 as=0.29 ps=2.58 w=0 l=0
X9 buffer_2/inv_1/vin d2.t0 vss vss sky130_fd_pr__nfet_01v8 ad=0.29 pd=2.58 as=0.29 ps=2.58 w=0 l=0
X10 buffer_0/inv_1/vin d0.t0 vss vss sky130_fd_pr__nfet_01v8 ad=0.29 pd=2.58 as=0.29 ps=2.58 w=0 l=0
X11 buffer_6/inv_1/vin d6.t1 vdd vdd sky130_fd_pr__pfet_01v8 ad=0.58 pd=4.58 as=0.58 ps=4.58 w=0 l=0
X12 buffer_2/inv_1/vin d2.t1 vdd vdd sky130_fd_pr__pfet_01v8 ad=0.58 pd=4.58 as=0.58 ps=4.58 w=0 l=0
X13 buffer_6/inv_1/vin d6.t0 vss vss sky130_fd_pr__nfet_01v8 ad=0.29 pd=2.58 as=0.29 ps=2.58 w=0 l=0
R0 vdd.n71 vdd.n59 1789.41
R1 vdd.n68 vdd.n59 1789.41
R2 vdd.n71 vdd.n60 1789.41
R3 vdd.n77 vdd.n54 1789.41
R4 vdd.n74 vdd.n54 1789.41
R5 vdd.n77 vdd.n55 1789.41
R6 vdd.n74 vdd.n55 1789.41
R7 vdd.n41 vdd.n12 1789.41
R8 vdd.n41 vdd.n13 1789.41
R9 vdd.n81 vdd.n5 1789.41
R10 vdd.n52 vdd.n5 1789.41
R11 vdd.n34 vdd.n15 1789.41
R12 vdd.n37 vdd.n15 1789.41
R13 vdd.n34 vdd.n16 1789.41
R14 vdd.n37 vdd.n16 1789.41
R15 vdd.n31 vdd.n20 1789.41
R16 vdd.n28 vdd.n21 1789.41
R17 vdd.n31 vdd.n21 1789.41
R18 vdd.n205 vdd.n190 1789.41
R19 vdd.n212 vdd.n190 1789.41
R20 vdd.n205 vdd.n191 1789.41
R21 vdd.n212 vdd.n191 1789.41
R22 vdd.n221 vdd.n183 1789.41
R23 vdd.n202 vdd.n183 1789.41
R24 vdd.n221 vdd.n184 1789.41
R25 vdd.n202 vdd.n184 1789.41
R26 vdd.n333 vdd.n326 1789.41
R27 vdd.n326 vdd.n324 1789.41
R28 vdd.n345 vdd.n178 1789.41
R29 vdd.n347 vdd.n178 1789.41
R30 vdd.n307 vdd.n288 1789.41
R31 vdd.n307 vdd.n289 1789.41
R32 vdd.n321 vdd.n247 1789.41
R33 vdd.n321 vdd.n248 1789.41
R34 vdd.n281 vdd.n253 1789.41
R35 vdd.n310 vdd.n253 1789.41
R36 vdd.n281 vdd.n254 1789.41
R37 vdd.n310 vdd.n254 1789.41
R38 vdd.n273 vdd.n265 1789.41
R39 vdd.n265 vdd.n260 1789.41
R40 vdd.n273 vdd.n266 1789.41
R41 vdd.n266 vdd.n260 1789.41
R42 vdd.n207 vdd.n193 1789.41
R43 vdd.n210 vdd.n193 1789.41
R44 vdd.n207 vdd.n194 1789.41
R45 vdd.n210 vdd.n194 1789.41
R46 vdd.n196 vdd.n181 1789.41
R47 vdd.n201 vdd.n196 1789.41
R48 vdd.n197 vdd.n181 1789.41
R49 vdd.n201 vdd.n197 1789.41
R50 vdd.n325 vdd.n244 1789.41
R51 vdd.n335 vdd.n244 1789.41
R52 vdd.n240 vdd.n224 1789.41
R53 vdd.n240 vdd.n180 1789.41
R54 vdd.n283 vdd.n256 1789.41
R55 vdd.n286 vdd.n256 1789.41
R56 vdd.n283 vdd.n257 1789.41
R57 vdd.n286 vdd.n257 1789.41
R58 vdd.n275 vdd.n261 1789.41
R59 vdd.n278 vdd.n261 1789.41
R60 vdd.n275 vdd.n262 1789.41
R61 vdd.n278 vdd.n262 1789.41
R62 vdd.n165 vdd.n139 1789.41
R63 vdd.n139 vdd.n135 1789.41
R64 vdd.n165 vdd.n140 1789.41
R65 vdd.n140 vdd.n135 1789.41
R66 vdd.n138 vdd.n132 1789.41
R67 vdd.n167 vdd.n132 1789.41
R68 vdd.n138 vdd.n133 1789.41
R69 vdd.n167 vdd.n133 1789.41
R70 vdd.n148 vdd.n143 1789.41
R71 vdd.n157 vdd.n143 1789.41
R72 vdd.n148 vdd.n144 1789.41
R73 vdd.n157 vdd.n144 1789.41
R74 vdd.n150 vdd.n146 1789.41
R75 vdd.n155 vdd.n150 1789.41
R76 vdd.n151 vdd.n146 1789.41
R77 vdd.n155 vdd.n151 1789.41
R78 vdd.n123 vdd.n97 1789.41
R79 vdd.n97 vdd.n93 1789.41
R80 vdd.n123 vdd.n98 1789.41
R81 vdd.n98 vdd.n93 1789.41
R82 vdd.n96 vdd.n90 1789.41
R83 vdd.n125 vdd.n90 1789.41
R84 vdd.n96 vdd.n91 1789.41
R85 vdd.n125 vdd.n91 1789.41
R86 vdd.n106 vdd.n101 1789.41
R87 vdd.n115 vdd.n101 1789.41
R88 vdd.n106 vdd.n102 1789.41
R89 vdd.n115 vdd.n102 1789.41
R90 vdd.n108 vdd.n104 1789.41
R91 vdd.n113 vdd.n108 1789.41
R92 vdd.n109 vdd.n104 1789.41
R93 vdd.n113 vdd.n109 1789.41
R94 vdd.n40 vdd.n38 1315.04
R95 vdd.n7 vdd.n4 1231.76
R96 vdd.n8 vdd.n7 1231.76
R97 vdd.n47 vdd.n46 1231.76
R98 vdd.n46 vdd.n10 1231.76
R99 vdd.n226 vdd.n225 1231.76
R100 vdd.n225 vdd.n177 1231.76
R101 vdd.n328 vdd.n228 1231.76
R102 vdd.n328 vdd.n327 1231.76
R103 vdd.n297 vdd.n296 1231.76
R104 vdd.n296 vdd.n295 1231.76
R105 vdd.n302 vdd.n291 1231.76
R106 vdd.n302 vdd.n292 1231.76
R107 vdd.n236 vdd.n233 1231.76
R108 vdd.n236 vdd.n235 1231.76
R109 vdd.n337 vdd.n232 1231.76
R110 vdd.n337 vdd.n336 1231.76
R111 vdd.n47 vdd.n12 557.648
R112 vdd.n48 vdd.n47 557.648
R113 vdd.n48 vdd.n4 557.648
R114 vdd.n81 vdd.n4 557.648
R115 vdd.n13 vdd.n10 557.648
R116 vdd.n50 vdd.n10 557.648
R117 vdd.n50 vdd.n8 557.648
R118 vdd.n52 vdd.n8 557.648
R119 vdd.n333 vdd.n228 557.648
R120 vdd.n343 vdd.n228 557.648
R121 vdd.n343 vdd.n226 557.648
R122 vdd.n345 vdd.n226 557.648
R123 vdd.n327 vdd.n324 557.648
R124 vdd.n327 vdd.n230 557.648
R125 vdd.n230 vdd.n177 557.648
R126 vdd.n347 vdd.n177 557.648
R127 vdd.n291 vdd.n288 557.648
R128 vdd.n299 vdd.n291 557.648
R129 vdd.n299 vdd.n297 557.648
R130 vdd.n297 vdd.n247 557.648
R131 vdd.n292 vdd.n289 557.648
R132 vdd.n293 vdd.n292 557.648
R133 vdd.n295 vdd.n293 557.648
R134 vdd.n295 vdd.n248 557.648
R135 vdd.n325 vdd.n232 557.648
R136 vdd.n341 vdd.n232 557.648
R137 vdd.n341 vdd.n233 557.648
R138 vdd.n233 vdd.n224 557.648
R139 vdd.n336 vdd.n335 557.648
R140 vdd.n336 vdd.n231 557.648
R141 vdd.n235 vdd.n231 557.648
R142 vdd.n235 vdd.n180 557.648
R143 vdd.n70 vdd.n61 190.871
R144 vdd.n70 vdd 190.871
R145 vdd vdd.n69 190.871
R146 vdd.n76 vdd.n56 190.871
R147 vdd.n76 vdd 190.871
R148 vdd vdd.n75 190.871
R149 vdd.n43 vdd.n42 190.871
R150 vdd.n42 vdd 190.871
R151 vdd.n82 vdd.n3 190.871
R152 vdd vdd.n3 190.871
R153 vdd.n35 vdd.n18 190.871
R154 vdd vdd.n35 190.871
R155 vdd.n36 vdd 190.871
R156 vdd.n30 vdd 190.871
R157 vdd vdd.n29 190.871
R158 vdd.n29 vdd.n26 190.871
R159 vdd.n204 vdd 190.871
R160 vdd.n213 vdd 190.871
R161 vdd.n204 vdd.n189 190.871
R162 vdd.n220 vdd 190.871
R163 vdd.n185 vdd 190.871
R164 vdd.n220 vdd.n219 190.871
R165 vdd vdd.n332 190.871
R166 vdd.n332 vdd.n331 190.871
R167 vdd vdd.n176 190.871
R168 vdd.n348 vdd.n176 190.871
R169 vdd.n306 vdd 190.871
R170 vdd.n306 vdd.n305 190.871
R171 vdd.n320 vdd 190.871
R172 vdd.n320 vdd.n319 190.871
R173 vdd.n280 vdd 190.871
R174 vdd.n311 vdd 190.871
R175 vdd.n280 vdd.n252 190.871
R176 vdd.n272 vdd 190.871
R177 vdd.n267 vdd 190.871
R178 vdd.n272 vdd.n271 190.871
R179 vdd.n208 vdd.n195 190.871
R180 vdd vdd.n208 190.871
R181 vdd.n209 vdd 190.871
R182 vdd.n199 vdd.n198 190.871
R183 vdd vdd.n199 190.871
R184 vdd.n200 vdd 190.871
R185 vdd.n245 vdd.n234 190.871
R186 vdd vdd.n245 190.871
R187 vdd.n241 vdd.n239 190.871
R188 vdd vdd.n241 190.871
R189 vdd.n284 vdd.n258 190.871
R190 vdd vdd.n284 190.871
R191 vdd.n285 vdd 190.871
R192 vdd.n277 vdd 190.871
R193 vdd vdd.n276 190.871
R194 vdd.n276 vdd.n264 190.871
R195 vdd.n164 vdd 190.871
R196 vdd.n141 vdd 190.871
R197 vdd.n164 vdd.n163 190.871
R198 vdd.n137 vdd 190.871
R199 vdd.n168 vdd 190.871
R200 vdd.n137 vdd.n131 190.871
R201 vdd.n147 vdd.n142 190.871
R202 vdd.n147 vdd 190.871
R203 vdd.n158 vdd 190.871
R204 vdd.n154 vdd 190.871
R205 vdd vdd.n153 190.871
R206 vdd.n153 vdd.n152 190.871
R207 vdd.n122 vdd 190.871
R208 vdd.n99 vdd 190.871
R209 vdd.n122 vdd.n121 190.871
R210 vdd.n95 vdd 190.871
R211 vdd.n126 vdd 190.871
R212 vdd.n95 vdd.n89 190.871
R213 vdd.n105 vdd.n100 190.871
R214 vdd.n105 vdd 190.871
R215 vdd.n116 vdd 190.871
R216 vdd.n112 vdd 190.871
R217 vdd vdd.n111 190.871
R218 vdd.n111 vdd.n110 190.871
R219 vdd.n69 vdd.n66 190.494
R220 vdd.n75 vdd.n57 190.494
R221 vdd.n36 vdd.n17 190.494
R222 vdd.n30 vdd.n25 190.494
R223 vdd.n214 vdd.n213 190.494
R224 vdd.n218 vdd.n185 190.494
R225 vdd.n312 vdd.n311 190.494
R226 vdd.n270 vdd.n267 190.494
R227 vdd.n209 vdd.n187 190.494
R228 vdd.n200 vdd.n186 190.494
R229 vdd.n285 vdd.n251 190.494
R230 vdd.n277 vdd.n263 190.494
R231 vdd.n162 vdd.n141 190.494
R232 vdd.n169 vdd.n168 190.494
R233 vdd.n159 vdd.n158 190.494
R234 vdd.n154 vdd.n129 190.494
R235 vdd.n120 vdd.n99 190.494
R236 vdd.n127 vdd.n126 190.494
R237 vdd.n117 vdd.n116 190.494
R238 vdd.n112 vdd.n87 190.494
R239 vdd.n32 vdd.n19 179.118
R240 vdd.n33 vdd.n14 179.118
R241 vdd.n38 vdd.n14 179.118
R242 vdd.n40 vdd.n39 179.118
R243 vdd.n39 vdd.n11 179.118
R244 vdd.n49 vdd.n11 179.118
R245 vdd.n49 vdd.n6 179.118
R246 vdd.n80 vdd.n6 179.118
R247 vdd.n80 vdd.n79 179.118
R248 vdd.n78 vdd.n53 179.118
R249 vdd.n73 vdd.n53 179.118
R250 vdd.n72 vdd.n58 179.118
R251 vdd.n28 vdd.n27 173.642
R252 vdd.n68 vdd.n67 173.642
R253 vdd.n83 vdd.n2 131.388
R254 vdd.n51 vdd.n2 131.388
R255 vdd.n45 vdd.n44 131.388
R256 vdd.n45 vdd.n9 131.388
R257 vdd.n344 vdd.n175 131.388
R258 vdd.n349 vdd.n175 131.388
R259 vdd.n329 vdd.n227 131.388
R260 vdd.n330 vdd.n329 131.388
R261 vdd.n298 vdd.n249 131.388
R262 vdd.n318 vdd.n249 131.388
R263 vdd.n303 vdd.n290 131.388
R264 vdd.n304 vdd.n303 131.388
R265 vdd.n238 vdd.n237 131.388
R266 vdd.n242 vdd.n237 131.388
R267 vdd.n339 vdd.n338 131.388
R268 vdd.n338 vdd.n243 131.388
R269 vdd.n79 vdd.n78 120.168
R270 vdd.n33 vdd.n32 117.9
R271 vdd.n73 vdd.n72 117.9
R272 vdd vdd.n16 92.5005
R273 vdd.n16 vdd.n14 92.5005
R274 vdd.n18 vdd.n15 92.5005
R275 vdd.n15 vdd.n14 92.5005
R276 vdd.n52 vdd 92.5005
R277 vdd.n80 vdd.n52 92.5005
R278 vdd vdd.n50 92.5005
R279 vdd.n50 vdd.n49 92.5005
R280 vdd.n13 vdd 92.5005
R281 vdd.n39 vdd.n13 92.5005
R282 vdd.n43 vdd.n12 92.5005
R283 vdd.n39 vdd.n12 92.5005
R284 vdd.n48 vdd.n1 92.5005
R285 vdd.n49 vdd.n48 92.5005
R286 vdd.n82 vdd.n81 92.5005
R287 vdd.n81 vdd.n80 92.5005
R288 vdd vdd.n55 92.5005
R289 vdd.n55 vdd.n53 92.5005
R290 vdd.n56 vdd.n54 92.5005
R291 vdd.n54 vdd.n53 92.5005
R292 vdd vdd.n60 92.5005
R293 vdd.n61 vdd.n59 92.5005
R294 vdd.n59 vdd.n58 92.5005
R295 vdd vdd.n21 92.5005
R296 vdd.n21 vdd.n19 92.5005
R297 vdd.n26 vdd.n20 92.5005
R298 vdd vdd.n257 92.5005
R299 vdd.n257 vdd.n255 92.5005
R300 vdd.n258 vdd.n256 92.5005
R301 vdd.n256 vdd.n255 92.5005
R302 vdd vdd.n180 92.5005
R303 vdd.n346 vdd.n180 92.5005
R304 vdd vdd.n231 92.5005
R305 vdd.n342 vdd.n231 92.5005
R306 vdd.n335 vdd 92.5005
R307 vdd.n335 vdd.n334 92.5005
R308 vdd.n325 vdd.n234 92.5005
R309 vdd.n334 vdd.n325 92.5005
R310 vdd.n341 vdd.n340 92.5005
R311 vdd.n342 vdd.n341 92.5005
R312 vdd.n239 vdd.n224 92.5005
R313 vdd.n346 vdd.n224 92.5005
R314 vdd vdd.n197 92.5005
R315 vdd.n197 vdd.n182 92.5005
R316 vdd.n198 vdd.n196 92.5005
R317 vdd.n196 vdd.n182 92.5005
R318 vdd vdd.n194 92.5005
R319 vdd.n194 vdd.n192 92.5005
R320 vdd.n195 vdd.n193 92.5005
R321 vdd.n193 vdd.n192 92.5005
R322 vdd.n271 vdd.n266 92.5005
R323 vdd.n266 vdd.n259 92.5005
R324 vdd vdd.n265 92.5005
R325 vdd.n265 vdd.n259 92.5005
R326 vdd.n254 vdd.n252 92.5005
R327 vdd.n255 vdd.n254 92.5005
R328 vdd.n253 vdd 92.5005
R329 vdd.n255 vdd.n253 92.5005
R330 vdd.n319 vdd.n248 92.5005
R331 vdd.n248 vdd.n246 92.5005
R332 vdd.n293 vdd.n250 92.5005
R333 vdd.n300 vdd.n293 92.5005
R334 vdd.n305 vdd.n289 92.5005
R335 vdd.n289 vdd.n287 92.5005
R336 vdd vdd.n288 92.5005
R337 vdd.n288 vdd.n287 92.5005
R338 vdd.n299 vdd 92.5005
R339 vdd.n300 vdd.n299 92.5005
R340 vdd vdd.n247 92.5005
R341 vdd.n247 vdd.n246 92.5005
R342 vdd.n348 vdd.n347 92.5005
R343 vdd.n347 vdd.n346 92.5005
R344 vdd.n230 vdd.n174 92.5005
R345 vdd.n342 vdd.n230 92.5005
R346 vdd.n331 vdd.n324 92.5005
R347 vdd.n334 vdd.n324 92.5005
R348 vdd.n333 vdd 92.5005
R349 vdd.n334 vdd.n333 92.5005
R350 vdd vdd.n343 92.5005
R351 vdd.n343 vdd.n342 92.5005
R352 vdd.n345 vdd 92.5005
R353 vdd.n346 vdd.n345 92.5005
R354 vdd.n219 vdd.n184 92.5005
R355 vdd.n184 vdd.n182 92.5005
R356 vdd vdd.n183 92.5005
R357 vdd.n183 vdd.n182 92.5005
R358 vdd.n191 vdd.n189 92.5005
R359 vdd.n192 vdd.n191 92.5005
R360 vdd.n190 vdd 92.5005
R361 vdd.n192 vdd.n190 92.5005
R362 vdd vdd.n262 92.5005
R363 vdd.n262 vdd.n259 92.5005
R364 vdd.n264 vdd.n261 92.5005
R365 vdd.n261 vdd.n259 92.5005
R366 vdd.n144 vdd 92.5005
R367 vdd.n149 vdd.n144 92.5005
R368 vdd.n143 vdd.n142 92.5005
R369 vdd.n145 vdd.n143 92.5005
R370 vdd.n133 vdd.n131 92.5005
R371 vdd.n136 vdd.n133 92.5005
R372 vdd.n132 vdd 92.5005
R373 vdd.n134 vdd.n132 92.5005
R374 vdd.n163 vdd.n140 92.5005
R375 vdd.n140 vdd.n136 92.5005
R376 vdd vdd.n139 92.5005
R377 vdd.n139 vdd.n134 92.5005
R378 vdd vdd.n151 92.5005
R379 vdd.n151 vdd.n149 92.5005
R380 vdd.n152 vdd.n150 92.5005
R381 vdd.n150 vdd.n145 92.5005
R382 vdd.n102 vdd 92.5005
R383 vdd.n107 vdd.n102 92.5005
R384 vdd.n101 vdd.n100 92.5005
R385 vdd.n103 vdd.n101 92.5005
R386 vdd.n91 vdd.n89 92.5005
R387 vdd.n94 vdd.n91 92.5005
R388 vdd.n90 vdd 92.5005
R389 vdd.n92 vdd.n90 92.5005
R390 vdd.n121 vdd.n98 92.5005
R391 vdd.n98 vdd.n94 92.5005
R392 vdd vdd.n97 92.5005
R393 vdd.n97 vdd.n92 92.5005
R394 vdd vdd.n109 92.5005
R395 vdd.n109 vdd.n107 92.5005
R396 vdd.n110 vdd.n108 92.5005
R397 vdd.n108 vdd.n103 92.5005
R398 vdd.n166 vdd.n134 91.6935
R399 vdd.n166 vdd.n136 91.6935
R400 vdd.n156 vdd.n145 91.6935
R401 vdd.n156 vdd.n149 91.6935
R402 vdd.n124 vdd.n92 91.6935
R403 vdd.n124 vdd.n94 91.6935
R404 vdd.n114 vdd.n103 91.6935
R405 vdd.n114 vdd.n107 91.6935
R406 vdd.n274 vdd.n259 89.559
R407 vdd.n279 vdd.n259 89.559
R408 vdd.n282 vdd.n255 89.559
R409 vdd.n309 vdd.n255 89.559
R410 vdd.n308 vdd.n287 89.559
R411 vdd.n301 vdd.n287 89.559
R412 vdd.n301 vdd.n300 89.559
R413 vdd.n300 vdd.n294 89.559
R414 vdd.n294 vdd.n246 89.559
R415 vdd.n322 vdd.n246 89.559
R416 vdd.n334 vdd.n323 89.559
R417 vdd.n334 vdd.n229 89.559
R418 vdd.n342 vdd.n229 89.559
R419 vdd.n342 vdd.n179 89.559
R420 vdd.n346 vdd.n179 89.559
R421 vdd.n346 vdd.n223 89.559
R422 vdd.n222 vdd.n182 89.559
R423 vdd.n203 vdd.n182 89.559
R424 vdd.n206 vdd.n192 89.559
R425 vdd.n211 vdd.n192 89.559
R426 vdd.n67 vdd.n60 79.4196
R427 vdd.n27 vdd.n20 79.4196
R428 vdd.n309 vdd.n308 60.084
R429 vdd.n323 vdd.n322 60.084
R430 vdd.n223 vdd.n222 60.084
R431 vdd.n44 vdd.n43 59.4829
R432 vdd.n44 vdd.n1 59.4829
R433 vdd.n83 vdd.n82 59.4829
R434 vdd vdd.n9 59.4829
R435 vdd vdd.n9 59.4829
R436 vdd.n51 vdd 59.4829
R437 vdd vdd.n51 59.4829
R438 vdd vdd.n227 59.4829
R439 vdd vdd.n227 59.4829
R440 vdd.n344 vdd 59.4829
R441 vdd vdd.n344 59.4829
R442 vdd.n331 vdd.n330 59.4829
R443 vdd.n330 vdd.n174 59.4829
R444 vdd.n349 vdd.n348 59.4829
R445 vdd.n290 vdd 59.4829
R446 vdd vdd.n290 59.4829
R447 vdd vdd.n298 59.4829
R448 vdd.n298 vdd 59.4829
R449 vdd.n305 vdd.n304 59.4829
R450 vdd.n304 vdd.n250 59.4829
R451 vdd.n319 vdd.n318 59.4829
R452 vdd.n339 vdd.n234 59.4829
R453 vdd.n340 vdd.n339 59.4829
R454 vdd.n239 vdd.n238 59.4829
R455 vdd vdd.n243 59.4829
R456 vdd.n243 vdd 59.4829
R457 vdd vdd.n242 59.4829
R458 vdd.n242 vdd 59.4829
R459 vdd.n84 vdd.n83 59.1064
R460 vdd.n350 vdd.n349 59.1064
R461 vdd.n318 vdd.n317 59.1064
R462 vdd.n238 vdd.n172 59.1064
R463 vdd.n282 vdd.n279 58.9504
R464 vdd.n206 vdd.n203 58.9504
R465 vdd.n145 vdd.n136 26.5564
R466 vdd.n103 vdd.n94 26.5564
R467 vdd.n37 vdd.n36 23.1255
R468 vdd.n38 vdd.n37 23.1255
R469 vdd.n35 vdd.n34 23.1255
R470 vdd.n34 vdd.n33 23.1255
R471 vdd.n46 vdd.n45 23.1255
R472 vdd.n46 vdd.n11 23.1255
R473 vdd.n7 vdd.n2 23.1255
R474 vdd.n7 vdd.n6 23.1255
R475 vdd.n5 vdd.n3 23.1255
R476 vdd.n79 vdd.n5 23.1255
R477 vdd.n42 vdd.n41 23.1255
R478 vdd.n41 vdd.n40 23.1255
R479 vdd.n75 vdd.n74 23.1255
R480 vdd.n74 vdd.n73 23.1255
R481 vdd.n77 vdd.n76 23.1255
R482 vdd.n78 vdd.n77 23.1255
R483 vdd.n69 vdd.n68 23.1255
R484 vdd.n71 vdd.n70 23.1255
R485 vdd.n72 vdd.n71 23.1255
R486 vdd.n31 vdd.n30 23.1255
R487 vdd.n32 vdd.n31 23.1255
R488 vdd.n29 vdd.n28 23.1255
R489 vdd.n286 vdd.n285 23.1255
R490 vdd.n309 vdd.n286 23.1255
R491 vdd.n284 vdd.n283 23.1255
R492 vdd.n283 vdd.n282 23.1255
R493 vdd.n338 vdd.n337 23.1255
R494 vdd.n337 vdd.n229 23.1255
R495 vdd.n237 vdd.n236 23.1255
R496 vdd.n236 vdd.n179 23.1255
R497 vdd.n241 vdd.n240 23.1255
R498 vdd.n240 vdd.n223 23.1255
R499 vdd.n245 vdd.n244 23.1255
R500 vdd.n323 vdd.n244 23.1255
R501 vdd.n201 vdd.n200 23.1255
R502 vdd.n203 vdd.n201 23.1255
R503 vdd.n199 vdd.n181 23.1255
R504 vdd.n222 vdd.n181 23.1255
R505 vdd.n210 vdd.n209 23.1255
R506 vdd.n211 vdd.n210 23.1255
R507 vdd.n208 vdd.n207 23.1255
R508 vdd.n207 vdd.n206 23.1255
R509 vdd.n267 vdd.n260 23.1255
R510 vdd.n279 vdd.n260 23.1255
R511 vdd.n273 vdd.n272 23.1255
R512 vdd.n274 vdd.n273 23.1255
R513 vdd.n311 vdd.n310 23.1255
R514 vdd.n310 vdd.n309 23.1255
R515 vdd.n281 vdd.n280 23.1255
R516 vdd.n282 vdd.n281 23.1255
R517 vdd.n303 vdd.n302 23.1255
R518 vdd.n302 vdd.n301 23.1255
R519 vdd.n296 vdd.n249 23.1255
R520 vdd.n296 vdd.n294 23.1255
R521 vdd.n321 vdd.n320 23.1255
R522 vdd.n322 vdd.n321 23.1255
R523 vdd.n307 vdd.n306 23.1255
R524 vdd.n308 vdd.n307 23.1255
R525 vdd.n329 vdd.n328 23.1255
R526 vdd.n328 vdd.n229 23.1255
R527 vdd.n225 vdd.n175 23.1255
R528 vdd.n225 vdd.n179 23.1255
R529 vdd.n178 vdd.n176 23.1255
R530 vdd.n223 vdd.n178 23.1255
R531 vdd.n332 vdd.n326 23.1255
R532 vdd.n326 vdd.n323 23.1255
R533 vdd.n202 vdd.n185 23.1255
R534 vdd.n203 vdd.n202 23.1255
R535 vdd.n221 vdd.n220 23.1255
R536 vdd.n222 vdd.n221 23.1255
R537 vdd.n213 vdd.n212 23.1255
R538 vdd.n212 vdd.n211 23.1255
R539 vdd.n205 vdd.n204 23.1255
R540 vdd.n206 vdd.n205 23.1255
R541 vdd.n278 vdd.n277 23.1255
R542 vdd.n279 vdd.n278 23.1255
R543 vdd.n276 vdd.n275 23.1255
R544 vdd.n275 vdd.n274 23.1255
R545 vdd.n158 vdd.n157 23.1255
R546 vdd.n157 vdd.n156 23.1255
R547 vdd.n148 vdd.n147 23.1255
R548 vdd.n156 vdd.n148 23.1255
R549 vdd.n168 vdd.n167 23.1255
R550 vdd.n167 vdd.n166 23.1255
R551 vdd.n138 vdd.n137 23.1255
R552 vdd.n166 vdd.n138 23.1255
R553 vdd.n141 vdd.n135 23.1255
R554 vdd.n166 vdd.n135 23.1255
R555 vdd.n165 vdd.n164 23.1255
R556 vdd.n166 vdd.n165 23.1255
R557 vdd.n155 vdd.n154 23.1255
R558 vdd.n156 vdd.n155 23.1255
R559 vdd.n153 vdd.n146 23.1255
R560 vdd.n156 vdd.n146 23.1255
R561 vdd.n116 vdd.n115 23.1255
R562 vdd.n115 vdd.n114 23.1255
R563 vdd.n106 vdd.n105 23.1255
R564 vdd.n114 vdd.n106 23.1255
R565 vdd.n126 vdd.n125 23.1255
R566 vdd.n125 vdd.n124 23.1255
R567 vdd.n96 vdd.n95 23.1255
R568 vdd.n124 vdd.n96 23.1255
R569 vdd.n99 vdd.n93 23.1255
R570 vdd.n124 vdd.n93 23.1255
R571 vdd.n123 vdd.n122 23.1255
R572 vdd.n124 vdd.n123 23.1255
R573 vdd.n113 vdd.n112 23.1255
R574 vdd.n114 vdd.n113 23.1255
R575 vdd.n111 vdd.n104 23.1255
R576 vdd.n114 vdd.n104 23.1255
R577 vdd.n67 vdd.n58 8.97701
R578 vdd.n27 vdd.n19 8.97701
R579 vdd.n171 vdd.n128 3.08591
R580 vdd.n171 vdd.n170 2.81243
R581 vdd vdd.n86 2.79913
R582 vdd.n64 vdd 2.3405
R583 vdd.n63 vdd 2.3405
R584 vdd.n22 vdd 2.3405
R585 vdd.n24 vdd 2.3405
R586 vdd.n268 vdd 2.3405
R587 vdd.n268 vdd 2.3405
R588 vdd.n314 vdd 2.3405
R589 vdd.n314 vdd 2.3405
R590 vdd.n216 vdd 2.3405
R591 vdd.n216 vdd 2.3405
R592 vdd.n188 vdd 2.3405
R593 vdd.n188 vdd 2.3405
R594 vdd.n130 vdd 2.3405
R595 vdd.n130 vdd 2.3405
R596 vdd.n160 vdd 2.3405
R597 vdd.n160 vdd 2.3405
R598 vdd.n88 vdd 2.3405
R599 vdd.n88 vdd 2.3405
R600 vdd.n118 vdd 2.3405
R601 vdd.n118 vdd 2.3405
R602 vdd.n0 vdd 2.29412
R603 vdd.n315 vdd 2.29412
R604 vdd.n173 vdd 2.29412
R605 vdd.n173 vdd 2.29412
R606 vdd.n25 vdd.n24 2.07925
R607 vdd.n23 vdd.n17 1.8605
R608 vdd.n62 vdd.n57 1.8605
R609 vdd.n66 vdd.n65 1.8605
R610 vdd.n269 vdd.n263 1.8605
R611 vdd.n313 vdd.n251 1.8605
R612 vdd.n217 vdd.n186 1.8605
R613 vdd.n215 vdd.n187 1.8605
R614 vdd.n270 vdd.n269 1.8605
R615 vdd.n313 vdd.n312 1.8605
R616 vdd.n218 vdd.n217 1.8605
R617 vdd.n215 vdd.n214 1.8605
R618 vdd.n170 vdd.n129 1.8605
R619 vdd.n161 vdd.n159 1.8605
R620 vdd.n170 vdd.n169 1.8605
R621 vdd.n162 vdd.n161 1.8605
R622 vdd.n128 vdd.n87 1.8605
R623 vdd.n119 vdd.n117 1.8605
R624 vdd.n128 vdd.n127 1.8605
R625 vdd.n120 vdd.n119 1.8605
R626 vdd.n353 vdd.n352 1.83821
R627 vdd.n86 vdd 1.65831
R628 vdd.n86 vdd.n85 0.814562
R629 vdd.n85 vdd.n0 0.720812
R630 vdd.n85 vdd.n84 0.715885
R631 vdd.n351 vdd.n172 0.715885
R632 vdd.n317 vdd.n316 0.715885
R633 vdd.n351 vdd.n350 0.715885
R634 vdd.n316 vdd 0.413
R635 vdd.n352 vdd.n351 0.410656
R636 vdd.n66 vdd.n61 0.376971
R637 vdd.n57 vdd.n56 0.376971
R638 vdd.n84 vdd.n1 0.376971
R639 vdd.n18 vdd.n17 0.376971
R640 vdd.n26 vdd.n25 0.376971
R641 vdd.n214 vdd.n189 0.376971
R642 vdd.n219 vdd.n218 0.376971
R643 vdd.n350 vdd.n174 0.376971
R644 vdd.n317 vdd.n250 0.376971
R645 vdd.n312 vdd.n252 0.376971
R646 vdd.n271 vdd.n270 0.376971
R647 vdd.n195 vdd.n187 0.376971
R648 vdd.n198 vdd.n186 0.376971
R649 vdd.n340 vdd.n172 0.376971
R650 vdd.n258 vdd.n251 0.376971
R651 vdd.n264 vdd.n263 0.376971
R652 vdd.n163 vdd.n162 0.376971
R653 vdd.n169 vdd.n131 0.376971
R654 vdd.n159 vdd.n142 0.376971
R655 vdd.n152 vdd.n129 0.376971
R656 vdd.n121 vdd.n120 0.376971
R657 vdd.n127 vdd.n89 0.376971
R658 vdd.n117 vdd.n100 0.376971
R659 vdd.n110 vdd.n87 0.376971
R660 vdd.n316 vdd.n315 0.360656
R661 vdd.n351 vdd.n173 0.360656
R662 vdd.n62 vdd 0.33175
R663 vdd vdd.n23 0.328625
R664 vdd.n65 vdd 0.328625
R665 vdd.n353 vdd.n171 0.263158
R666 vdd.n23 vdd.n22 0.21925
R667 vdd.n63 vdd.n62 0.21925
R668 vdd.n65 vdd.n64 0.21925
R669 vdd.n217 vdd 0.166125
R670 vdd.n313 vdd 0.164562
R671 vdd vdd.n215 0.164562
R672 vdd.n161 vdd 0.164562
R673 vdd.n119 vdd 0.164562
R674 vdd.n24 vdd 0.109875
R675 vdd.n22 vdd 0.109875
R676 vdd vdd.n63 0.109875
R677 vdd.n64 vdd 0.109875
R678 vdd.n269 vdd.n268 0.109875
R679 vdd.n314 vdd.n313 0.109875
R680 vdd.n217 vdd.n216 0.109875
R681 vdd.n215 vdd.n188 0.109875
R682 vdd.n170 vdd.n130 0.109875
R683 vdd.n161 vdd.n160 0.109875
R684 vdd.n128 vdd.n88 0.109875
R685 vdd.n119 vdd.n118 0.109875
R686 vdd vdd.n0 0.102062
R687 vdd.n268 vdd 0.0551875
R688 vdd vdd.n314 0.0551875
R689 vdd.n216 vdd 0.0551875
R690 vdd.n188 vdd 0.0551875
R691 vdd vdd.n130 0.0551875
R692 vdd.n160 vdd 0.0551875
R693 vdd vdd.n88 0.0551875
R694 vdd.n118 vdd 0.0551875
R695 vdd.n315 vdd 0.0512812
R696 vdd vdd.n173 0.0512812
R697 vdd vdd.n353 0.00538077
R698 vdd.n352 vdd 0.00284375
R699 vss.n107 vss.n106 4116.13
R700 vss.n298 vss.n207 2547.63
R701 vss.n203 vss.n187 2510.19
R702 vss.n306 vss.n202 2306.06
R703 vss.n306 vss.n203 2306.06
R704 vss.n202 vss.n187 2306.06
R705 vss.n234 vss.n201 2306.06
R706 vss.n237 vss.n201 2306.06
R707 vss.n234 vss.n185 2306.06
R708 vss.n237 vss.n185 2306.06
R709 vss.n323 vss.n308 2306.06
R710 vss.n308 vss.n189 2306.06
R711 vss.n314 vss.n307 2306.06
R712 vss.n314 vss.n188 2306.06
R713 vss.n327 vss.n199 2306.06
R714 vss.n328 vss.n327 2306.06
R715 vss.n199 vss.n184 2306.06
R716 vss.n328 vss.n184 2306.06
R717 vss.n325 vss.n190 2306.06
R718 vss.n325 vss.n191 2306.06
R719 vss.n335 vss.n190 2306.06
R720 vss.n335 vss.n191 2306.06
R721 vss.n220 vss.n207 2306.06
R722 vss.n220 vss.n208 2306.06
R723 vss.n298 vss.n208 2306.06
R724 vss.n232 vss.n218 2306.06
R725 vss.n245 vss.n232 2306.06
R726 vss.n233 vss.n218 2306.06
R727 vss.n245 vss.n233 2306.06
R728 vss.n247 vss.n216 2306.06
R729 vss.n252 vss.n216 2306.06
R730 vss.n260 vss.n246 2306.06
R731 vss.n264 vss.n246 2306.06
R732 vss.n221 vss.n212 2306.06
R733 vss.n221 vss.n213 2306.06
R734 vss.n225 vss.n212 2306.06
R735 vss.n225 vss.n213 2306.06
R736 vss.n226 vss.n210 2306.06
R737 vss.n226 vss.n211 2306.06
R738 vss.n230 vss.n210 2306.06
R739 vss.n230 vss.n211 2306.06
R740 vss.n275 vss.n214 2306.06
R741 vss.n277 vss.n214 2306.06
R742 vss.n287 vss.n271 2306.06
R743 vss.n290 vss.n271 2306.06
R744 vss.n153 vss.n135 2306.06
R745 vss.n144 vss.n135 2306.06
R746 vss.n153 vss.n136 2306.06
R747 vss.n144 vss.n136 2306.06
R748 vss.n125 vss.n120 2306.06
R749 vss.n132 vss.n125 2306.06
R750 vss.n126 vss.n120 2306.06
R751 vss.n132 vss.n126 2306.06
R752 vss.n110 vss.n81 2306.06
R753 vss.n108 vss.n81 2306.06
R754 vss.n164 vss.n118 2306.06
R755 vss.n119 vss.n118 2306.06
R756 vss.n94 vss.n83 2306.06
R757 vss.n105 vss.n83 2306.06
R758 vss.n94 vss.n84 2306.06
R759 vss.n105 vss.n84 2306.06
R760 vss.n97 vss.n87 2306.06
R761 vss.n90 vss.n88 2306.06
R762 vss.n97 vss.n88 2306.06
R763 vss.n142 vss.n133 2306.06
R764 vss.n146 vss.n142 2306.06
R765 vss.n143 vss.n133 2306.06
R766 vss.n146 vss.n143 2306.06
R767 vss.n160 vss.n122 2306.06
R768 vss.n156 vss.n122 2306.06
R769 vss.n160 vss.n123 2306.06
R770 vss.n156 vss.n123 2306.06
R771 vss.n62 vss.n36 2306.06
R772 vss.n36 vss.n32 2306.06
R773 vss.n62 vss.n37 2306.06
R774 vss.n37 vss.n32 2306.06
R775 vss.n35 vss.n29 2306.06
R776 vss.n64 vss.n29 2306.06
R777 vss.n35 vss.n30 2306.06
R778 vss.n64 vss.n30 2306.06
R779 vss.n46 vss.n41 2306.06
R780 vss.n55 vss.n41 2306.06
R781 vss.n46 vss.n42 2306.06
R782 vss.n55 vss.n42 2306.06
R783 vss.n48 vss.n44 2306.06
R784 vss.n53 vss.n48 2306.06
R785 vss.n49 vss.n44 2306.06
R786 vss.n53 vss.n49 2306.06
R787 vss.n19 vss.n9 2306.06
R788 vss.n13 vss.n9 2306.06
R789 vss.n19 vss.n10 2306.06
R790 vss.n22 vss.n2 2306.06
R791 vss.n22 vss.n3 2306.06
R792 vss.n5 vss.n3 2306.06
R793 vss.n312 vss.n311 1390.59
R794 vss.n312 vss.n182 1390.59
R795 vss.n319 vss.n309 1390.59
R796 vss.n319 vss.n181 1390.59
R797 vss.n259 vss.n217 1390.59
R798 vss.n265 vss.n217 1390.59
R799 vss.n270 vss.n248 1390.59
R800 vss.n270 vss.n249 1390.59
R801 vss.n296 vss.n272 1390.59
R802 vss.n296 vss.n273 1390.59
R803 vss.n286 vss.n215 1390.59
R804 vss.n291 vss.n215 1390.59
R805 vss.n115 vss.n79 1390.59
R806 vss.n115 vss.n75 1390.59
R807 vss.n112 vss.n78 1390.59
R808 vss.n112 vss.n74 1390.59
R809 vss.n21 vss.n7 1121.29
R810 vss.n20 vss.n8 1121.29
R811 vss.n323 vss.n309 915.471
R812 vss.n309 vss.n200 915.471
R813 vss.n311 vss.n200 915.471
R814 vss.n311 vss.n307 915.471
R815 vss.n189 vss.n181 915.471
R816 vss.n337 vss.n181 915.471
R817 vss.n337 vss.n182 915.471
R818 vss.n188 vss.n182 915.471
R819 vss.n248 vss.n247 915.471
R820 vss.n258 vss.n248 915.471
R821 vss.n259 vss.n258 915.471
R822 vss.n260 vss.n259 915.471
R823 vss.n252 vss.n249 915.471
R824 vss.n266 vss.n249 915.471
R825 vss.n266 vss.n265 915.471
R826 vss.n265 vss.n264 915.471
R827 vss.n275 vss.n272 915.471
R828 vss.n285 vss.n272 915.471
R829 vss.n286 vss.n285 915.471
R830 vss.n287 vss.n286 915.471
R831 vss.n277 vss.n273 915.471
R832 vss.n292 vss.n273 915.471
R833 vss.n292 vss.n291 915.471
R834 vss.n291 vss.n290 915.471
R835 vss.n110 vss.n78 915.471
R836 vss.n168 vss.n78 915.471
R837 vss.n168 vss.n79 915.471
R838 vss.n164 vss.n79 915.471
R839 vss.n108 vss.n74 915.471
R840 vss.n170 vss.n74 915.471
R841 vss.n170 vss.n75 915.471
R842 vss.n119 vss.n75 915.471
R843 vss.n6 vss.n5 744.25
R844 vss.n13 vss.n12 744.25
R845 vss.n21 vss.n20 738.066
R846 vss.n96 vss.n92 560.645
R847 vss.n95 vss.n82 560.645
R848 vss.n106 vss.n82 560.645
R849 vss.n109 vss.n107 560.645
R850 vss.n109 vss.n76 560.645
R851 vss.n169 vss.n76 560.645
R852 vss.n169 vss.n77 560.645
R853 vss.n163 vss.n77 560.645
R854 vss.n163 vss.n162 560.645
R855 vss.n161 vss.n121 560.645
R856 vss.n155 vss.n121 560.645
R857 vss.n154 vss.n134 560.645
R858 vss.n145 vss.n134 560.645